11
Title
C         -1.31970       -0.64380        0.00000
H         -0.96310       -1.65260        0.00000
H         -0.96310       -0.13940       -0.87370
H         -2.38970       -0.64380        0.00000
C         -0.80640        0.08220        1.25740
H         -1.16150        1.09160        1.25640
H         -1.16470       -0.42110        2.13110
C          0.73360        0.07970        1.25880
H          1.09190        0.58270        0.38500
H          1.09030        0.58440        2.13230
H          1.08870       -0.92970        1.26020
