14
Coordinates from ORCA-job ts
C   -1.30199679200336      0.23770149604323     -0.21903830900536
C   -0.65452549088797      1.37677004974294      0.23784083906211
H   -0.89567737188508      2.31097104509050     -0.24568023160592
H   -0.51131365003345      1.45158760940331      1.30393146403304
O   -0.98734706501576     -0.93896491644235      0.24464647161953
C   0.57938721313073     -1.21542290559438      0.60370912581272
C   1.30373709071931     -0.40352018279841     -0.31679957603999
C   1.21326659501348      0.97578532623407     -0.11796726468775
H   1.54268192054322      1.35508505207923      0.83816378823672
H   1.50364201896930      1.60996020761999     -0.94605411105798
H   1.33180817109859     -0.76458664777933     -1.33953946285788
H   0.61967054666194     -2.29023171829519      0.47066760098394
H   0.64159071923251     -0.92315930061295      1.64911403264797
H   -1.77094330174335      0.23668457701018     -1.20684978624530